*SPEF "1481-1998"
*DESIGN "priority_encoder"
*DATE "Mon Jun  2 05:47:46 2025"
*VENDOR "Synopsys, Inc."
*PROGRAM "icc2 /home/synopsys_install/icc2/W-2024.09/linux64/nwtn/bin/icc2_exec"
*VERSION "W-2024.09 Aug 25, 2024"
*DESIGN_FLOW "ICC2 SPEF DR"
*DIVIDER /
*DELIMITER :
*BUS_DELIMITER [ ]
*T_UNIT 1 NS
*C_UNIT 1 FF
*R_UNIT 1 OHM
*L_UNIT 1 HENRY

// XY_UNIT 1 UM
// PARASITIC_TECH p1 at 125.000 degree

*NAME_MAP
*1 Clock
*2 d[3]
*3 d[2]
*4 d[1]
*5 d[0]
*6 q[1]
*7 q[0]
*8 v
*9 VDD
*10 VSS
*11 q_reg[1]
*12 q_reg[0]
*13 v_reg
*14 HFSINV_165_0
*15 ctosc_drc_inst_336
*16 ctosc_drc_inst_427
*17 U14
*18 U16
*19 U17
*20 U18
*21 N5
*22 N6
*23 N7
*24 HFSNET_0
*25 ctosc_drc_0
*26 ctosc_drc_1
*27 n10

*PORTS

*1 I *C 7.168 0.143
*2 I *C 13.552 0.143
*3 I *C 13.248 0.143
*4 I *C 2.304 0.143
*5 I *C 7.776 0.143
*6 O *C 10.360 0.143
*7 O *C 6.408 0.143
*8 O *C 13.552 0.143
*9 I *C 8.384 5.344
*10 I *C 8.384 5.344

*D_NET *1 0.5386027 //LENGTH 6.861 LUMPCC 0 DR

*CONN
*P *1 I *L 0 *C 7.168 0.258
*I *16:A I *L 2.117502 *C 9.448 4.432
*N *1:2 *C 9.448 4.250
*N *1:3 *C 9.448 4.420
*N *1:4 *C 9.434 4.432
*N *1:5 *C 7.182 4.432
*N *1:6 *C 7.168 4.418

*CAP
0 *1 0.1622792
1 *16:A 0.001
2 *1:2 0.01374195
3 *1:3 0.007564832
4 *1:4 0.09705433
5 *1:5 0.09705487
6 *1:6 0.1599075

*RES
0 *1 *1:6 7.429465
1 *1:3 *16:A 1
2 *1:3 *1:2 0.2825
3 *1:4 *1:3 0.5
4 *1:5 *1:4 4.023215
5 *1:6 *1:5 0.5

*END

*D_NET *2 1.793072 //LENGTH 22.065 LUMPCC 0 DR

*CONN
*P *2 I *L 0 *C 13.552 0.258
*I *20:A1 I *L 0.625865 *C 2.760 4.584
*I *18:A1 I *L 0.625865 *C 8.992 7.928
*N *2:3 *C 8.992 7.915
*N *2:4 *C 2.760 4.598
*N *2:5 *C 2.760 5.939
*N *2:6 *C 2.774 5.952
*N *2:7 *C 5.939 5.952
*N *2:8 *C 5.952 5.966
*N *2:9 *C 5.952 7.459
*N *2:10 *C 5.966 7.472
*N *2:11 *C 8.979 7.472
*N *2:12 *C 8.992 7.472
*N *2:13 *C 8.992 7.182
*N *2:14 *C 9.007 7.168
*N *2:15 *C 13.537 7.168
*N *2:16 *C 13.552 7.155

*CAP
0 *2 0.2877766
1 *20:A1 0.001
2 *18:A1 0.001
3 *2:3 0.01945135
4 *2:4 0.05391743
5 *2:5 0.05535011
6 *2:6 0.10865
7 *2:7 0.10865
8 *2:8 0.06126564
9 *2:9 0.06126564
10 *2:10 0.1015169
11 *2:11 0.1015169
12 *2:12 0.03722257
13 *2:13 0.01426314
14 *2:14 0.2472622
15 *2:15 0.2472622
16 *2:16 0.2857012

*RES
0 *2 *2:16 12.31518
1 *2:3 *18:A1 1
2 *2:14 *2:13 1
3 *2:13 *2:12 0.5187501
4 *2:15 *2:14 9.060001
5 *2:16 *2:15 1
6 *2:12 *2:11 0.5
7 *2:12 *2:3 0.7901786
8 *2:11 *2:10 5.380358
9 *2:9 *2:8 2.666071
10 *2:10 *2:9 0.5
11 *2:8 *2:7 0.5
12 *2:7 *2:6 5.651786
13 *2:5 *2:4 2.394643
14 *2:6 *2:5 0.5
15 *2:4 *20:A1 1

*END

*D_NET *3 1.111449 //LENGTH 13.188 LUMPCC 0 DR

*CONN
*P *3 I *L 0 *C 13.248 0.258
*I *18:A2 I *L 0.705032 *C 8.690 7.776
*I *14:A I *L 1.468433 *C 13.704 4.432
*N *3:3 *C 13.704 4.250
*N *3:4 *C 13.704 4.420
*N *3:5 *C 13.691 4.432
*N *3:6 *C 8.688 7.750
*N *3:7 *C 8.688 4.750
*N *3:8 *C 8.702 4.736
*N *3:9 *C 12.640 4.736
*N *3:10 *C 12.640 4.432
*N *3:11 *C 13.248 4.432
*N *3:12 *C 13.248 4.418

*CAP
0 *3 0.2000107
1 *18:A2 0.001
2 *14:A 0.001
3 *3:3 0.01699576
4 *3:4 0.01081865
5 *3:5 0.01482947
6 *3:6 0.133821
7 *3:7 0.1361185
8 *3:8 0.1565584
9 *3:9 0.1702774
10 *3:10 0.03444914
11 *3:11 0.03793186
12 *3:12 0.1976385

*RES
0 *3 *3:12 7.429465
1 *3:4 *14:A 1
2 *3:4 *3:3 0.2825
3 *3:5 *3:4 0.5
4 *3:12 *3:11 0.5
5 *3:11 *3:10 1.085714
6 *3:11 *3:5 0.7901787
7 *3:7 *3:6 5.358036
8 *3:8 *3:7 0.5
9 *3:6 *18:A2 0.5
10 *3:9 *3:8 7.033036
11 *3:10 *3:9 0.5428572

*END

*D_NET *4 0.3519472 //LENGTH 4.844 LUMPCC 0 DR

*CONN
*P *4 I *L 0 *C 2.304 0.258
*I *19:A1 I *L 0.616969 *C 2.760 2.760
*I *17:A1 I *L 0.5564 *C 3.824 2.912
*N *4:3 *C 3.824 2.730
*N *4:4 *C 3.824 2.900
*N *4:5 *C 3.811 2.912
*N *4:6 *C 2.774 2.912
*N *4:7 *C 2.760 2.900
*N *4:8 *C 2.760 2.734
*N *4:9 *C 2.760 0.494
*N *4:10 *C 2.747 0.480
*N *4:11 *C 2.317 0.480
*N *4:12 *C 2.304 0.467

*CAP
0 *4 0.0121615
1 *19:A1 0.001
2 *17:A1 0.001
3 *4:3 0.01227303
4 *4:4 0.006095914
5 *4:5 0.03919805
6 *4:6 0.03919805
7 *4:7 0.006295252
8 *4:8 0.1007984
9 *4:9 0.09356364
10 *4:10 0.01528703
11 *4:11 0.01528703
12 *4:12 0.009789284

*RES
0 *4 *4:12 0.3723215
1 *4:8 *19:A1 1
2 *4:8 *4:7 0.2758334
3 *4:7 *4:6 0.5
4 *4:6 *4:5 1.851786
5 *4:4 *17:A1 1
6 *4:4 *4:3 0.2825
7 *4:5 *4:4 0.5
8 *4:9 *4:8 4.000893
9 *4:10 *4:9 0.5
10 *4:12 *4:11 0.5
11 *4:11 *4:10 0.7660714

*END

*D_NET *5 0.4661951 //LENGTH 6.425 LUMPCC 0 DR

*CONN
*P *5 I *L 0 *C 7.776 0.258
*I *17:A2 I *L 0.60771 *C 4.128 2.760
*N *5:2 *C 4.128 2.747
*N *5:3 *C 4.128 2.317
*N *5:4 *C 4.142 2.304
*N *5:5 *C 7.763 2.304
*N *5:6 *C 7.776 2.291

*CAP
0 *5 0.07762926
1 *17:A2 0.001
2 *5:2 0.02120713
3 *5:3 0.02263981
4 *5:4 0.134231
5 *5:5 0.134231
6 *5:6 0.07525704

*RES
0 *5 *5:6 3.629464
1 *5:2 *17:A2 1
2 *5:3 *5:2 0.7660714
3 *5:4 *5:3 0.5
4 *5:6 *5:5 0.5
5 *5:5 *5:4 6.466072

*END

*D_NET *6 0.4654502 //LENGTH 5.932 LUMPCC 0 DR

*CONN
*I *11:Q O *L 0 *C 10.208 5.952
*P *6 O *L 0 *C 10.360 0.258
*N *6:2 *C 10.360 5.952
*N *6:3 *C 10.209 5.952

*CAP
0 *11:Q 0.001
1 *6 0.2258561
2 *6:2 0.2341276
3 *6:3 0.004466559

*RES
0 *11:Q *6:3 1
1 *6:3 *6:2 0.2696429
2 *6:2 *6 10.16786

*END

*D_NET *7 0.6722847 //LENGTH 7.297 LUMPCC 0 DR

*CONN
*I *12:Q O *L 0 *C 8.840 4.736
*P *7 O *L 0 *C 6.408 0.258
*N *7:2 *C 6.408 0.480
*N *7:3 *C 6.560 0.480
*N *7:4 *C 6.560 3.506
*N *7:5 *C 6.574 3.520
*N *7:6 *C 8.827 3.520
*N *7:7 *C 8.840 3.534
*N *7:8 *C 8.840 4.723

*CAP
0 *12:Q 0.001
1 *7 0.01486199
2 *7:2 0.0219343
3 *7:3 0.1493269
4 *7:4 0.1398824
5 *7:5 0.114809
6 *7:6 0.114809
7 *7:7 0.05854689
8 *7:8 0.05711421

*RES
0 *12:Q *7:8 1
1 *7:8 *7:7 2.123214
2 *7:7 *7:6 0.5
3 *7:6 *7:5 4.023214
4 *7:4 *7:3 5.404465
5 *7:5 *7:4 0.5
6 *7:2 *7 0.3964286
7 *7:3 *7:2 0.2714286

*END

*D_NET *8 0.2402709 //LENGTH 3.669 LUMPCC 0 DR

*CONN
*I *13:Q O *L 0 *C 12.640 2.608
*P *8 O *L 0 *C 13.552 0.258
*N *8:2 *C 12.640 2.426
*N *8:3 *C 13.552 2.595
*N *8:4 *C 13.539 2.608
*N *8:5 *C 12.654 2.608
*N *8:6 *C 12.640 2.595

*CAP
0 *13:Q 0.001
1 *8 0.07497257
2 *8:2 0.01391139
3 *8:3 0.0726009
4 *8:4 0.03502616
5 *8:5 0.03502562
6 *8:6 0.007734276

*RES
0 *13:Q *8:6 1
1 *8:6 *8:5 0.5
2 *8:6 *8:2 0.2825
3 *8:5 *8:4 1.580357
4 *8:4 *8:3 0.5
5 *8:3 *8 4.172321

*END

*D_NET *21 0.2533283 //LENGTH 2.168 LUMPCC 0 DR

*CONN
*I *20:Y O *L 0 *C 3.550 4.128
*I *12:D I *L 0.558146 *C 5.466 4.280
*N *21:2 *C 5.344 4.280
*N *21:3 *C 5.344 4.128

*CAP
0 *20:Y 0.1032181
1 *12:D 0.01264655
2 *21:2 0.02344605
3 *21:3 0.1140176

*RES
0 *20:Y *21:3 3.588001
1 *21:3 *21:2 0.304
2 *21:2 *12:D 0.244

*END

*D_NET *22 0.632773 //LENGTH 8.957 LUMPCC 0 DR

*CONN
*I *18:Y O *L 0 *C 8.232 7.472
*I *11:D I *L 0.558146 *C 6.864 6.408
*I *17:A3 I *L 0.666711 *C 4.280 3.064
*N *22:3 *C 4.280 3.078
*N *22:4 *C 4.280 6.546
*N *22:5 *C 4.293 6.560
*N *22:6 *C 6.864 6.408
*N *22:7 *C 6.864 6.548
*N *22:8 *C 6.864 6.560
*N *22:9 *C 8.219 6.560
*N *22:10 *C 8.232 6.574
*N *22:11 *C 8.232 7.459

*CAP
0 *18:Y 0.001
1 *11:D 0.001
2 *17:A3 0.001
3 *22:3 0.1338686
4 *22:4 0.1353013
5 *22:5 0.0857306
6 *22:6 0.007112833
7 *22:7 0.008545512
8 *22:8 0.1335224
9 *22:9 0.04541958
10 *22:10 0.04085245
11 *22:11 0.03941977

*RES
0 *18:Y *22:11 1
1 *22:10 *22:9 0.5
2 *22:9 *22:8 2.41875
3 *22:11 *22:10 1.580357
4 *22:7 *22:6 0.2325
5 *22:8 *22:7 0.5
6 *22:8 *22:5 4.590179
7 *22:6 *11:D 1
8 *22:4 *22:3 6.194643
9 *22:5 *22:4 0.5
10 *22:3 *17:A3 1

*END

*D_NET *23 0.4573604 //LENGTH 5.204 LUMPCC 0 DR

*CONN
*I *17:Y O *L 0 *C 4.736 3.368
*I *13:D I *L 0.558146 *C 9.296 3.064
*N *23:2 *C 9.296 3.064
*N *23:3 *C 9.296 3.204
*N *23:4 *C 9.283 3.216
*N *23:5 *C 4.750 3.216
*N *23:6 *C 4.736 3.216
*N *23:7 *C 4.736 3.356

*CAP
0 *17:Y 0.001
1 *13:D 0.001
2 *23:2 0.007877936
3 *23:3 0.009310613
4 *23:4 0.2111804
5 *23:5 0.2111804
6 *23:6 0.008621831
7 *23:7 0.007189154

*RES
0 *17:Y *23:7 1
1 *23:2 *13:D 1
2 *23:3 *23:2 0.2325
3 *23:4 *23:3 0.5
4 *23:6 *23:5 0.5
5 *23:5 *23:4 8.094644
6 *23:7 *23:6 0.2325

*END

*D_NET *24 1.039172 //LENGTH 12.049 LUMPCC 0 DR

*CONN
*I *14:Y O *L 0 *C 13.208 4.285
*I *19:A2 I *L 0.557409 *C 2.912 2.912
*N *24:2 *C 2.912 2.925
*N *24:3 *C 2.912 3.811
*N *24:4 *C 2.925 3.824
*N *24:5 *C 13.083 3.824
*N *24:6 *C 13.096 3.838
*N *24:7 *C 13.096 4.267
*N *24:8 *C 13.109 4.280

*CAP
0 *14:Y 0.01316565
1 *19:A2 0.001
2 *24:2 0.05023921
3 *24:3 0.05167189
4 *24:4 0.4241339
5 *24:5 0.4241339
6 *24:6 0.03172004
7 *24:7 0.03201686
8 *24:8 0.01109025

*RES
0 *14:Y *24:8 0.1658334
1 *24:2 *19:A2 1
2 *24:3 *24:2 1.580357
3 *24:4 *24:3 0.5
4 *24:6 *24:5 0.5
5 *24:5 *24:4 18.1375
6 *24:8 *24:7 1
7 *24:7 *24:6 0.7660714

*END

*D_NET *25 0.796166 //LENGTH 10.179 LUMPCC 0 DR

*CONN
*I *15:Y O *L 0 *C 6.408 3.064
*I *12:CLK I *L 0.714381 *C 5.800 5.192
*I *11:CLK I *L 0.714381 *C 7.168 5.496
*I *13:CLK I *L 0.714381 *C 9.600 2.152
*N *25:4 *C 9.418 2.608
*N *25:5 *C 9.600 2.166
*N *25:6 *C 9.600 2.595
*N *25:7 *C 9.588 2.608
*N *25:8 *C 9.600 2.622
*N *25:9 *C 9.600 5.027
*N *25:10 *C 9.587 5.040
*N *25:11 *C 7.168 5.482
*N *25:12 *C 7.168 5.054
*N *25:13 *C 7.168 5.040
*N *25:14 *C 5.800 5.179
*N *25:15 *C 5.800 5.040
*N *25:16 *C 5.814 5.040
*N *25:17 *C 6.408 5.040
*N *25:18 *C 6.408 5.027
*N *25:19 *C 6.408 3.078

*CAP
0 *15:Y 0.001
1 *12:CLK 0.001
2 *11:CLK 0.001
3 *13:CLK 0.001
4 *25:4 0.01158951
5 *25:5 0.0200388
6 *25:6 0.02147148
7 *25:7 0.006845617
8 *25:8 0.09383332
9 *25:9 0.09383332
10 *25:10 0.09426799
11 *25:11 0.02019023
12 *25:12 0.0216229
13 *25:13 0.1238295
14 *25:14 0.008302806
15 *25:15 0.009735484
16 *25:16 0.02084053
17 *25:17 0.05040262
18 *25:18 0.09839731
19 *25:19 0.09696463

*RES
0 *15:Y *25:19 1
1 *25:10 *25:9 0.5
2 *25:9 *25:8 4.294643
3 *25:7 *25:6 0.5
4 *25:7 *25:4 0.2825
5 *25:8 *25:7 0.5
6 *25:6 *25:5 0.7660714
7 *25:5 *13:CLK 1
8 *25:12 *25:11 0.7660714
9 *25:13 *25:12 0.5
10 *25:13 *25:10 4.31875
11 *25:11 *11:CLK 1
12 *25:18 *25:17 0.5
13 *25:17 *25:16 1.061607
14 *25:17 *25:13 1.357143
15 *25:19 *25:18 3.480357
16 *25:15 *25:14 0.2325
17 *25:16 *25:15 0.5
18 *25:14 *12:CLK 1

*END

*D_NET *26 0.7603831 //LENGTH 9.101 LUMPCC 0 DR

*CONN
*I *16:Y O *L 0 *C 12.670 4.282
*I *15:A I *L 0.578227 *C 5.648 2.912
*N *26:2 *C 5.648 2.730
*N *26:3 *C 5.648 2.900
*N *26:4 *C 5.662 2.912
*N *26:5 *C 12.779 2.912
*N *26:6 *C 12.792 2.925
*N *26:7 *C 12.792 4.279
*N *26:8 *C 12.792 4.280

*CAP
0 *16:Y 0.01497431
1 *15:A 0.001
2 *26:2 0.01260214
3 *26:3 0.006425024
4 *26:4 0.2883966
5 *26:5 0.2883966
6 *26:6 0.06402265
7 *26:7 0.06431946
8 *26:8 0.02024626

*RES
0 *16:Y *26:8 0.244
1 *26:3 *15:A 1
2 *26:3 *26:2 0.2825
3 *26:4 *26:3 0.5
4 *26:6 *26:5 0.5
5 *26:5 *26:4 12.70893
6 *26:8 *26:7 1
7 *26:7 *26:6 2.416964

*END

*D_NET *27 0.1955236 //LENGTH 2.715 LUMPCC 0 DR

*CONN
*I *19:Y O *L 0 *C 2.152 3.064
*I *20:A2 I *L 0.705032 *C 3.066 4.432
*N *27:2 *C 3.065 4.279
*N *27:3 *C 3.066 4.408
*N *27:4 *C 3.050 4.432
*N *27:5 *C 2.166 4.432
*N *27:6 *C 2.152 4.418
*N *27:7 *C 2.152 3.078

*CAP
0 *19:Y 0.001
1 *20:A2 0.001
2 *27:2 0.01299244
3 *27:3 0.006815329
4 *27:4 0.03246992
5 *27:5 0.03246992
6 *27:6 0.05510432
7 *27:7 0.05367164

*RES
0 *19:Y *27:7 1
1 *27:3 *20:A2 0.5
2 *27:3 *27:2 0.2072581
3 *27:4 *27:3 0.5
4 *27:6 *27:5 0.5
5 *27:5 *27:4 1.580357
6 *27:7 *27:6 2.394643

*END

